FoamFile
{
    version     2.0;
    format      ascii;
    class       dictionary;
    object      dynamicMeshDict;
}

dynamicFvMesh      dynamicMotionSolverFvMesh;

motionSolverLibs (fvMotionSolvers);

solver          displacementLaplacian;

displacementLaplacianCoeffs
{
    diffusivity     inverseDistance (naca2312);
}
