FoamFile
{
    version     2.0;
    format      ascii;
    class       dictionary;
    object      dynamicMeshDict;
}

// dynamicFvMesh   dynamicOversetFvMesh;
dynamicFvMesh      dynamicMotionSolverFvMesh;

motionSolverLibs (fvMotionSolvers);

solver          displacementLaplacian;

displacementLaplacianCoeffs
{
    diffusivity     inverseDistance (naca2312);
//    diffusivity     exponential 0.25 inverseDistance (naca2312);
}
