/*--------------------------------*- C++ -*----------------------------------*\
| =========                 |                                                 |
| \\      /  F ield         | OpenFOAM: The Open Source CFD Toolbox           |
|  \\    /   O peration     | Version:  2406                                  |
|   \\  /    A nd           | Website:  www.openfoam.com                      |
|    \\/     M anipulation  |                                                 |
\*---------------------------------------------------------------------------*/
FoamFile
{
    version     2.0;
    format      ascii;
    arch        "LSB;label=32;scalar=64";
    class       polyBoundaryMesh;
    location    "constant/polyMesh";
    object      boundary;
}
// * * * * * * * * * * * * * * * * * * * * * * * * * * * * * * * * * * * * * //

4
(
    inlet
    {
        type            patch;
        nFaces          64;
        startFace       4336;
    }
    outlet
    {
        type            patch;
        nFaces          64;
        startFace       4400;
    }
    far
    {
        type            slip;
        inGroups        1(slip);
        nFaces          800;
        startFace       4464;
        faces           ( ( 1 5 4 0 ) ( 4 5 6 7 ) ( 3 7 6 2 ) ( 0 3 2 1 ) );
    }
    symmetry
    {
        type            symmetryPlane;
        inGroups        1(symmetryPlane);
        nFaces          0;
        startFace       5264;
    }
)

// ************************************************************************* //
