FoamFile
{
    version     2.0;
    format      ascii;
    class       dictionary;
    location    "system";
    object      fvSchemes;
}

ddtSchemes
{
        // default backward;
        default Euler;
}

gradSchemes
{
    default        cellLimited Gauss linear 0.5;
    // grad(u)        Gauss linear limited 0.5;
}

divSchemes
{
    default         none;
    div(phi,U)      Gauss linearUpwindV grad(U);
    div((nuEff*dev2(T(grad(U))))) Gauss linear;
}

laplacianSchemes
{
    default         Gauss linear limited 1;
}

interpolationSchemes
{
   default linear;
}


snGradSchemes
{
    default limited 1;
    snGrad(p) corrected;
}

wallDist
{
    method meshWave;
}

fluxRequired
{
    default no;
    p ;
    Phi ;
}

