FoamFile
{
    version 2.0;
    format ascii;
    class dictionary;
    location "system";
    object surfaceFeatureExtractDict;
}

yourSTLfile.stl
{
    extractionMethod extractFromSurface;
    extractFromSurfaceCoeffs
    {
        // Mark edges whose adjacent surface normals are at an angle less
        // than includedAngle as features
        // - 0  : selects no edges
        // - 180: selects all edges
        includedAngle 0;
    }
    writeObj yes;
}
