FoamFile
{
    version     2.0;
    format      ascii;
    class       volVectorField;
    object      U;
}

dimensions      [0 1 -1 0 0 0 0];

internalField   uniform (UINF 0 0);

boundaryField
{
    
    naca2312
    {
        type            BOUNDARY;
        value           uniform (0 0 0);
    }

    far
    {
        type            slip;
    }

    inlet
    {
        type            fixedValue;
        value           $internalField;   
    }

    outlet
    {
        type            inletOutlet;
        inletValue      uniform (0 0 0);
        value           $internalField;
    }

    symmetry
    {
        type            symmetryPlane;
    }
}
