FoamFile
{
    version     2.0;
    format      ascii;
    class       dictionary;
    object      changeDictionaryDict;
}

U
{
    boundaryField
    {
        naca0012
        {
            type            movingWallVelocity;
            value           uniform  (0 0 0);
        }
    }
}
