FoamFile
{
    version     2.0;
    format      ascii;
    class       dictionary;
    object      controlDict;
}

application     pimpleFoam;

startFrom       latestTime;

startTime       0;

stopAt          endTime;

endTime         0.2; // Will be overwritten by the adapter

deltaT          1e-3;

writeControl    adjustableRunTime;

writeInterval   1e-3;

purgeWrite      0;

writeFormat     ascii;

writePrecision  10;

writeCompression off;

timeFormat      general;

timePrecision   6;

runTimeModifiable true;

adjustTimeStep  no;

// ************************************************************************* //

functions
{

    Co1
        {
    // Mandatory entries (unmodifiable)
        type            CourantNo;
        libs            (fieldFunctionObjects);

        // Optional entries (runtime modifiable)
        // rho             rho;

        // Optional (inherited) entries
        // field           <phi>;
        // result          <fieldResult>;
        // region          region0;
        enabled         true;
        log             true;
        timeStart       0;
        // timeEnd         1000;
        
        
        executeControl  timeStep;
        executeInterval 1;
        
        writeControl    outputTime;
        //writeControl    timeStep;
        //writeInterval   1;
    }

///////////////////////////////////////////////////////////////////////////

    forces_object
    {
	type forces;
	libs ("libforces.so");

	writeControl outputTime;
	//writeControl   timeStep;
	//writeInterval  1;

	//// Patches to sample
	//patches ("body1" "body2" "body3");
	patches ("naca2312");

	//// Name of fields
	pName p;
	Uname U;

	//// Density
	rho rhoInf;
	rhoInf 1.225;

	//// Centre of rotation
	CofR (0 0 0);
    }

///////////////////////////////////////////////////////////////////////////

    forceCoeffs_object
    {
	// rhoInf - reference density
	// CofR - Centre of rotation
	// dragDir - Direction of drag coefficient
	// liftDir - Direction of lift coefficient
	// pitchAxis - Pitching moment axis
	// magUinf - free stream velocity magnitude
	// lRef - reference length
	// Aref - reference area
	type forceCoeffs;
	libs ("libforces.so");
	//patches ("body1" "body2" "body3");
	patches (naca2312);

	pName p;
	Uname U;
	rho rhoInf;
	rhoInf 1.225;

	//// Dump to file
	log true;

	CofR (0.0 0 0);
	liftDir (0 1 0);
	dragDir (1 0 0);
	pitchAxis (0 0 1);
	magUInf 7.5;
	lRef 0.1;         // reference lenght for moments!!!
	Aref 0.03;

        writeControl    outputTime;
        //writeControl   timeStep;
        //writeInterval  1;
    }

///////////////////////////////////////////////////////////////////////////

    preCICE_Adapter
    {
        type preciceAdapterFunctionObject;
        libs ("libpreciceAdapterFunctionObject.so");
    }
///////////////////////////////////////////////////////////////////////////

};

