FoamFile
{
    version     2.0;
    format      ascii;
    class       dictionary;
    object      fvSolution;
}

solvers
{

    cellDisplacement
    {
        solver          PCG;
        preconditioner  DIC;

        tolerance       1e-07;
        relTol          0;
        maxIter         500;
    }

    cellDisplacementFinal
    {
        $cellDisplacement;
        relTol          0;
	    minIter 	    3;
    }

    p
    {
        solver          PBiCGStab;
        preconditioner  DIC;
        tolerance       1e-6;
        relTol          0.01;
	    minIter 	    3;
    }

    pFinal
    {
        $p;
        relTol          0;
	    minIter 	    3;
    }


    pcorr
    {
        $pFinal;
        solver          PCG;
        preconditioner  DIC;
    }

    pcorrFinal
    {
        $pcorr;
        relTol          0;
    }


    "(U|k|epsilon|omega)"
    {
/*
        solver          smoothSolver;
        smoother        symGaussSeidel;
        tolerance       1e-6;
        relTol          0;
*/

        solver          PBiCGStab;
        preconditioner  DILU;
        tolerance       1e-8;
        relTol          0.0;
	    minIter 	3;
    }

    "(U|k|epsilon|omega)Final"
    {
        $U;
        tolerance       1e-8;
        relTol          0;
	    minIter 	    3;
    }
}

PIMPLE
{
    momentumPredictor   	true;
    correctPhi          	true; 
    oversetAdjustPhi    	false;
    nOuterCorrectors    	1;          // pimple Iteration
    nCorrectors         	2;          // solving for p (external, after continuity)
    nNonOrthogonalCorrectors 	2;      // solving for p (repetition)

    ddtCorr             	true;
}

relaxationFactors
{
    fields
    {
        ".*"           1.0;
    }
    equations
    {
        ".*"           1.0;
    }
}
