FoamFile
{
    version     2.0;
    format      ascii;
    class       dictionary;
    object      changeDictionaryDict;
}

U
{
    boundaryField
    {
        PATCH
        {
            type            TYPE;
            value           uniform  (0 0 0);
        }
    }
}
